[General]
cmdenv-express-mode = true
cmdenv-autoflush = true
cmdenv-status-frequency = 1s
**.cmdenv-log-level = info

image-path = ../../images

network = RSUExampleScenario

repeat = 100
seed-set = ${runnumber}

##########################################################
#            Simulation parameters                       #
##########################################################
debug-on-errors = true
print-undisposed = false

sim-time-limit = 300s

**.scalar-recording = true
**.vector-recording = true

*.playgroundSizeX = 2500m
*.playgroundSizeY = 2500m
*.playgroundSizeZ = 50m


##########################################################
# Annotation parameters                                  #
##########################################################
*.annotations.draw = true

##########################################################
# Obstacle parameters                                    #
##########################################################
*.obstacles.obstacles = xmldoc("config.xml", "//AnalogueModel[@type='SimpleObstacleShadowing']/obstacles")

##########################################################
#            TraCIScenarioManager parameters             #
##########################################################
*.manager.updateInterval = 1s
*.manager.host = "localhost"
*.manager.port = 9999
*.manager.autoShutdown = true
*.manager.launchConfig = xmldoc("erlangen.launchd.xml")

##########################################################
#                       RSU SETTINGS                     #
#                                                        #
#                                                        #
##########################################################
*.rsu[0].mobility.x = 2000
*.rsu[0].mobility.y = 2000
*.rsu[0].mobility.z = 3

*.rsu[*].applType = "TraCIDemoRSU11p"
*.rsu[*].appl.headerLength = 80 bit
*.rsu[*].appl.sendBeacons = false
*.rsu[*].appl.dataOnSch = false
*.rsu[*].appl.beaconInterval = 1s
*.rsu[*].appl.beaconUserPriority = 7
*.rsu[*].appl.dataUserPriority = 5
*.rsu[*].nic.phy80211p.antennaOffsetZ = 0 m

##########################################################
#            11p specific parameters                     #
#                                                        #
#                    NIC-Settings                        #
##########################################################
*.connectionManager.sendDirect = true
*.connectionManager.maxInterfDist = 2600m
*.connectionManager.drawMaxIntfDist = false

*.**.nic.mac1609_4.useServiceChannel = false

*.**.nic.mac1609_4.txPower = 20mW
*.**.nic.mac1609_4.bitrate = 6Mbps
*.**.nic.phy80211p.minPowerLevel = -110dBm

*.**.nic.phy80211p.useNoiseFloor = true
*.**.nic.phy80211p.noiseFloor = -98dBm

*.**.nic.phy80211p.decider = xmldoc("config.xml")
*.**.nic.phy80211p.analogueModels = xmldoc("config.xml")
*.**.nic.phy80211p.usePropagationDelay = true

*.**.nic.phy80211p.antenna = xmldoc("antenna.xml", "/root/Antenna[@id='monopole']")
*.node[*].nic.phy80211p.antennaOffsetY = 0 m
*.node[*].nic.phy80211p.antennaOffsetZ = 1.895 m

##########################################################
#                      App Layer                         #
##########################################################
*.node[*].applType = "PQV2VApp"
*.node[*].appl.headerLength = 80 bit
*.node[*].appl.sendBeacons = false
*.node[*].appl.dataOnSch = false
*.node[*].appl.beaconInterval = 100ms

##########################################################
#                      Mobility                          #
##########################################################
*.node[*].veinsmobility.x = 0
*.node[*].veinsmobility.y = 0
*.node[*].veinsmobility.z = 0
*.node[*].veinsmobility.setHostSpeed = false
*.node[*0].veinsmobility.accidentCount = 0
*.node[*0].veinsmobility.accidentStart = 73s
*.node[*0].veinsmobility.accidentDuration = 50s

[Config V2V-ECDSA-BPSK12-NOP2PCD-500MS]
*.node[*].appl.sendBeacons = true
*.node[*].appl.pq = false
*.**.nic.mac1609_4.bitrate = 6Mbps
*.node[*].appl.useLearnRequests = false
*.node[*].appl.certInterval = 5

[Config V2V-ECDSA-BPSK12-WITHP2PCD-500MS]
*.node[*].appl.sendBeacons = true
*.node[*].appl.pq = false
*.**.nic.mac1609_4.bitrate = 6Mbps
*.node[*].appl.useLearnRequests = true
*.node[*].appl.certInterval = 5

[Config V2V-ECDSA-BPSK12-NOP2PCD-1000MS]
*.node[*].appl.sendBeacons = true
*.node[*].appl.pq = false
*.**.nic.mac1609_4.bitrate = 6Mbps
*.node[*].appl.useLearnRequests = false
*.node[*].appl.certInterval = 10

[Config V2V-ECDSA-BPSK12-WITHP2PCD-1000MS]
*.node[*].appl.sendBeacons = true
*.node[*].appl.pq = false
*.**.nic.mac1609_4.bitrate = 6Mbps
*.node[*].appl.useLearnRequests = true
*.node[*].appl.certInterval = 10

[Config V2V-ECDSA-BPSK12-NOP2PCD-2000MS]
*.node[*].appl.sendBeacons = true
*.node[*].appl.pq = false
*.**.nic.mac1609_4.bitrate = 6Mbps
*.node[*].appl.useLearnRequests = false
*.node[*].appl.certInterval = 20

[Config V2V-ECDSA-BPSK12-WITHP2PCD-2000MS]
*.node[*].appl.sendBeacons = true
*.node[*].appl.pq = false
*.**.nic.mac1609_4.bitrate = 6Mbps
*.node[*].appl.useLearnRequests = true
*.node[*].appl.certInterval = 20

[Config V2V-ECDSA-BPSK12-NOP2PCD-5000MS]
*.node[*].appl.sendBeacons = true
*.node[*].appl.pq = false
*.**.nic.mac1609_4.bitrate = 6Mbps
*.node[*].appl.useLearnRequests = false
*.node[*].appl.certInterval = 50

[Config V2V-ECDSA-BPSK12-WITHP2PCD-5000MS]
*.node[*].appl.sendBeacons = true
*.node[*].appl.pq = false
*.**.nic.mac1609_4.bitrate = 6Mbps
*.node[*].appl.useLearnRequests = true
*.node[*].appl.certInterval = 50

[Config V2V-ECDSA-BPSK34-NOP2PCD-500MS]
*.node[*].appl.sendBeacons = true
*.node[*].appl.pq = false
*.**.nic.mac1609_4.bitrate = 9Mbps
*.node[*].appl.useLearnRequests = false
*.node[*].appl.certInterval = 5

[Config V2V-ECDSA-BPSK34-WITHP2PCD-500MS]
*.node[*].appl.sendBeacons = true
*.node[*].appl.pq = false
*.**.nic.mac1609_4.bitrate = 9Mbps
*.node[*].appl.useLearnRequests = true
*.node[*].appl.certInterval = 5

[Config V2V-ECDSA-BPSK34-NOP2PCD-1000MS]
*.node[*].appl.sendBeacons = true
*.node[*].appl.pq = false
*.**.nic.mac1609_4.bitrate = 9Mbps
*.node[*].appl.useLearnRequests = false
*.node[*].appl.certInterval = 10

[Config V2V-ECDSA-BPSK34-WITHP2PCD-1000MS]
*.node[*].appl.sendBeacons = true
*.node[*].appl.pq = false
*.**.nic.mac1609_4.bitrate = 9Mbps
*.node[*].appl.useLearnRequests = true
*.node[*].appl.certInterval = 10

[Config V2V-ECDSA-BPSK34-NOP2PCD-2000MS]
*.node[*].appl.sendBeacons = true
*.node[*].appl.pq = false
*.**.nic.mac1609_4.bitrate = 9Mbps
*.node[*].appl.useLearnRequests = false
*.node[*].appl.certInterval = 20

[Config V2V-ECDSA-BPSK34-WITHP2PCD-2000MS]
*.node[*].appl.sendBeacons = true
*.node[*].appl.pq = false
*.**.nic.mac1609_4.bitrate = 9Mbps
*.node[*].appl.useLearnRequests = true
*.node[*].appl.certInterval = 20

[Config V2V-ECDSA-BPSK34-NOP2PCD-5000MS]
*.node[*].appl.sendBeacons = true
*.node[*].appl.pq = false
*.**.nic.mac1609_4.bitrate = 9Mbps
*.node[*].appl.useLearnRequests = false
*.node[*].appl.certInterval = 50

[Config V2V-ECDSA-BPSK34-WITHP2PCD-5000MS]
*.node[*].appl.sendBeacons = true
*.node[*].appl.pq = false
*.**.nic.mac1609_4.bitrate = 9Mbps
*.node[*].appl.useLearnRequests = true
*.node[*].appl.certInterval = 50

[Config V2V-Falcon-BPSK12-NOP2PCD-500MS]
*.node[*].appl.sendBeacons = true
*.node[*].appl.pq = true
*.**.nic.mac1609_4.bitrate = 6Mbps
*.node[*].appl.useLearnRequests = false
*.node[*].appl.certInterval = 5

[Config V2V-Falcon-BPSK12-WITHP2PCD-500MS]
*.node[*].appl.sendBeacons = true
*.node[*].appl.pq = true
*.**.nic.mac1609_4.bitrate = 6Mbps
*.node[*].appl.useLearnRequests = true
*.node[*].appl.certInterval = 5

[Config V2V-Falcon-BPSK12-NOP2PCD-1000MS]
*.node[*].appl.sendBeacons = true
*.node[*].appl.pq = true
*.**.nic.mac1609_4.bitrate = 6Mbps
*.node[*].appl.useLearnRequests = false
*.node[*].appl.certInterval = 10

[Config V2V-Falcon-BPSK12-WITHP2PCD-1000MS]
*.node[*].appl.sendBeacons = true
*.node[*].appl.pq = true
*.**.nic.mac1609_4.bitrate = 6Mbps
*.node[*].appl.useLearnRequests = true
*.node[*].appl.certInterval = 10

[Config V2V-Falcon-BPSK12-NOP2PCD-2000MS]
*.node[*].appl.sendBeacons = true
*.node[*].appl.pq = true
*.**.nic.mac1609_4.bitrate = 6Mbps
*.node[*].appl.useLearnRequests = false
*.node[*].appl.certInterval = 20

[Config V2V-Falcon-BPSK12-WITHP2PCD-2000MS]
*.node[*].appl.sendBeacons = true
*.node[*].appl.pq = true
*.**.nic.mac1609_4.bitrate = 6Mbps
*.node[*].appl.useLearnRequests = true
*.node[*].appl.certInterval = 20

[Config V2V-Falcon-BPSK12-NOP2PCD-5000MS]
*.node[*].appl.sendBeacons = true
*.node[*].appl.pq = true
*.**.nic.mac1609_4.bitrate = 6Mbps
*.node[*].appl.useLearnRequests = false
*.node[*].appl.certInterval = 50

[Config V2V-Falcon-BPSK12-WITHP2PCD-5000MS]
*.node[*].appl.sendBeacons = true
*.node[*].appl.pq = true
*.**.nic.mac1609_4.bitrate = 6Mbps
*.node[*].appl.useLearnRequests = true
*.node[*].appl.certInterval = 50

[Config V2V-Falcon-BPSK34-NOP2PCD-500MS]
*.node[*].appl.sendBeacons = true
*.node[*].appl.pq = true
*.**.nic.mac1609_4.bitrate = 9Mbps
*.node[*].appl.useLearnRequests = false
*.node[*].appl.certInterval = 5

[Config V2V-Falcon-BPSK34-WITHP2PCD-500MS]
*.node[*].appl.sendBeacons = true
*.node[*].appl.pq = true
*.**.nic.mac1609_4.bitrate = 9Mbps
*.node[*].appl.useLearnRequests = true
*.node[*].appl.certInterval = 5

[Config V2V-Falcon-BPSK34-NOP2PCD-1000MS]
*.node[*].appl.sendBeacons = true
*.node[*].appl.pq = true
*.**.nic.mac1609_4.bitrate = 9Mbps
*.node[*].appl.useLearnRequests = false
*.node[*].appl.certInterval = 10

[Config V2V-Falcon-BPSK34-WITHP2PCD-1000MS]
*.node[*].appl.sendBeacons = true
*.node[*].appl.pq = true
*.**.nic.mac1609_4.bitrate = 9Mbps
*.node[*].appl.useLearnRequests = true
*.node[*].appl.certInterval = 10

[Config V2V-Falcon-BPSK34-NOP2PCD-2000MS]
*.node[*].appl.sendBeacons = true
*.node[*].appl.pq = true
*.**.nic.mac1609_4.bitrate = 9Mbps
*.node[*].appl.useLearnRequests = false
*.node[*].appl.certInterval = 20

[Config V2V-Falcon-BPSK34-WITHP2PCD-2000MS]
*.node[*].appl.sendBeacons = true
*.node[*].appl.pq = true
*.**.nic.mac1609_4.bitrate = 9Mbps
*.node[*].appl.useLearnRequests = true
*.node[*].appl.certInterval = 20

[Config V2V-Falcon-BPSK34-NOP2PCD-5000MS]
*.node[*].appl.sendBeacons = true
*.node[*].appl.pq = true
*.**.nic.mac1609_4.bitrate = 9Mbps
*.node[*].appl.useLearnRequests = false
*.node[*].appl.certInterval = 50

[Config V2V-Falcon-BPSK34-WITHP2PCD-5000MS]
*.node[*].appl.sendBeacons = true
*.node[*].appl.pq = true
*.**.nic.mac1609_4.bitrate = 9Mbps
*.node[*].appl.useLearnRequests = true
*.node[*].appl.certInterval = 50
